testcases/gridlabd/R1-12.47-1/R1-12.47-1.glm
// $Id: R1-12.47-1.glm 
// 12.5 kV feeder 
//********************************************* 
clock{ 
     timezone EST+5EDT;
     timestamp '2000-01-01 0:00:00'; 
     stoptime '2000-01-01 1:00:00'; 
 
} 

#set profiler=1 
//********************************************* 
// modules 
module tape; 
module powerflow{ 
     solver_method NR; 
      default_maximum_voltage_error 1e-6;
}; 

//********************************************* 
object regulator:4383 { 
     name R1-12-47-1_reg_1; 
     from R1-12-47-1_node_617; 
     to R1-12-47-1_meter_21; 
     phases ABCN; 
     configuration feeder_reg_cfg; 
} 

object regulator_configuration:4384 { 
     name feeder_reg_cfg; 
     Control OUTPUT_VOLTAGE; 
     band_center 7520.0; 
     band_width 120; 
     connect_type WYE_WYE; 
     time_delay 30; 
     raise_taps 16; 
     lower_taps 16; 
     regulation 0.10; 
     tap_pos_A 0; 
     tap_pos_B 0; 
     tap_pos_C 0; 
} 

object capacitor:4380 { 
     name R1-12-47-1_cap_1; 
     phases ABCN; 
     pt_phase B; 
     parent R1-12-47-1_node_422; 
     phases_connected ABC; 
     control VOLT; 
     voltage_set_high 7300; 
     voltage_set_low 7100; 
     capacitor_A 0.15 MVAr; 
     capacitor_B 0.15 MVAr; 
     capacitor_C 0.15 MVAr; 
     control_level INDIVIDUAL; 
	 switchA CLOSED;
     switchB CLOSED;
     switchC CLOSED;
     time_delay 30.0; 
     dwell_time 30.0; 
     cap_nominal_voltage 7220; 
     nominal_voltage 7216.88; 
} 

object capacitor:4381 { 
     name R1-12-47-1_cap_2; 
     phases ABCN; 
     pt_phase B; 
     parent R1-12-47-1_node_216; 
     phases_connected ABC; 
     control VOLT; 
     voltage_set_high 7300; 
     voltage_set_low 7100; 
     capacitor_A 0.3 MVAr; 
     capacitor_B 0.3 MVAr; 
     capacitor_C 0.3 MVAr; 
     control_level INDIVIDUAL; 
     time_delay 30.0; 
     dwell_time 30.0; 
     cap_nominal_voltage 7220; 
     nominal_voltage 7216.88; 
} 

object capacitor { 
     name R1-12-47-1_cap_3; 
     phases CN; 
     pt_phase C; 
     parent R1-12-47-1_node_248; 
     phases_connected C; 
     control MANUAL; 
     capacitor_A 0.15 MVAr; 
     capacitor_B 0.15 MVAr; 
     capacitor_C 0.15 MVAr; 
     control_level INDIVIDUAL; 
	 switchA CLOSED;
     switchB CLOSED;
     switchC CLOSED;
     time_delay 30.0; 
     dwell_time 30.0; 
     cap_nominal_voltage 7216.88; 
     nominal_voltage 7216.88;

}

object fuse:4249 { 
     name R1-12-47-1_fuse_1; 
     phases AN; 
     from R1-12-47-1_node_596; 
     to R1-12-47-1_node_599; 
     current_limit 50000;// 40; 
     status CLOSED; 
} 

object fuse:4250 { 
     name R1-12-47-1_fuse_2; 
     phases AN; 
     from R1-12-47-1_node_594; 
     to R1-12-47-1_node_595; 
     current_limit 50000;// 65; 
     status CLOSED; 
} 

object fuse:4251 { 
     name R1-12-47-1_fuse_3; 
     phases AN; 
     from R1-12-47-1_node_508; 
     to R1-12-47-1_node_510; 
     current_limit 50000;// 15; 
     status CLOSED; 
} 

object fuse:4252 { 
     name R1-12-47-1_fuse_4; 
     phases AN; 
     from R1-12-47-1_node_503; 
     to R1-12-47-1_node_511; 
     current_limit 50000;// 40; 
     status CLOSED; 
} 

object fuse:4253 { 
     name R1-12-47-1_fuse_5; 
     phases AN; 
     from R1-12-47-1_node_512; 
     to R1-12-47-1_node_513; 
     current_limit 50000;// 25; 
     status CLOSED; 
} 

object fuse:4254 { 
     name R1-12-47-1_fuse_6; 
     phases AN; 
     from R1-12-47-1_node_474; 
     to R1-12-47-1_node_477; 
     current_limit 50000;// 40; 
     status CLOSED; 
} 

object fuse:4255 { 
     name R1-12-47-1_fuse_7; 
     phases AN; 
     from R1-12-47-1_node_474; 
     to R1-12-47-1_node_480; 
     current_limit 50000;// 40; 
     status CLOSED; 
} 

object fuse:4256 { 
     name R1-12-47-1_fuse_8; 
     phases AN; 
     from R1-12-47-1_node_522; 
     to R1-12-47-1_node_524; 
     current_limit 50000;// 25; 
     status CLOSED; 
} 

object fuse:4257 { 
     name R1-12-47-1_fuse_9; 
     phases AN; 
     from R1-12-47-1_node_576; 
     to R1-12-47-1_node_577; 
     current_limit 50000;// 65; 
     status CLOSED; 
} 

object fuse:4258 { 
     name R1-12-47-1_fuse_10; 
     phases AN; 
     from R1-12-47-1_node_515; 
     to R1-12-47-1_node_518; 
     current_limit 50000;// 6; 
     status CLOSED; 
} 

object fuse:4259 { 
     name R1-12-47-1_fuse_11; 
     phases AN; 
     from R1-12-47-1_node_580; 
     to R1-12-47-1_node_581; 
     current_limit 50000;// 10; 
     status CLOSED; 
} 

object fuse:4260 { 
     name R1-12-47-1_fuse_12; 
     phases BN; 
     from R1-12-47-1_node_562; 
     to R1-12-47-1_node_574; 
     current_limit 50000;// 25; 
     status CLOSED; 
} 

object fuse:4261 { 
     name R1-12-47-1_fuse_13; 
     phases CN; 
     from R1-12-47-1_node_561; 
     to R1-12-47-1_node_567; 
     current_limit 50000;// 65; 
     status CLOSED; 
} 

object fuse:4262 { 
     name R1-12-47-1_fuse_14; 
     phases AN; 
     from R1-12-47-1_node_485; 
     to R1-12-47-1_node_487; 
     current_limit 50000;// 15; 
     status CLOSED; 
} 

object fuse:4263 { 
     name R1-12-47-1_fuse_15; 
     phases AN; 
     from R1-12-47-1_node_560; 
     to R1-12-47-1_node_566; 
     current_limit 50000;// 25; 
     status CLOSED; 
} 

object fuse:4264 { 
     name R1-12-47-1_fuse_16; 
     phases AN; 
     from R1-12-47-1_node_569; 
     to R1-12-47-1_node_570; 
     current_limit 50000;// 40; 
     status CLOSED; 
} 

object fuse:4265 { 
     name R1-12-47-1_fuse_17; 
     phases AN; 
     from R1-12-47-1_node_496; 
     to R1-12-47-1_node_498; 
     current_limit 50000;// 25; 
     status CLOSED; 
} 

object fuse:4266 { 
     name R1-12-47-1_fuse_18; 
     phases AN; 
     from R1-12-47-1_node_490; 
     to R1-12-47-1_node_492; 
     current_limit 50000;// 25; 
     status CLOSED; 
} 

object fuse:4267 { 
     name R1-12-47-1_fuse_19; 
     phases CN; 
     from R1-12-47-1_node_559; 
     to R1-12-47-1_node_563; 
     current_limit 50000;// 25; 
     status CLOSED; 
} 

object fuse:4268 { 
     name R1-12-47-1_fuse_20; 
     phases AN; 
     from R1-12-47-1_node_417; 
     to R1-12-47-1_node_418; 
     current_limit 50000;// 25; 
     status CLOSED; 
} 

object fuse:4269 { 
     name R1-12-47-1_fuse_21; 
     phases AN; 
     from R1-12-47-1_node_552; 
     to R1-12-47-1_node_553; 
     current_limit 50000;// 25; 
     status CLOSED; 
} 

object fuse:4270 { 
     name R1-12-47-1_fuse_22; 
     phases AN; 
     from R1-12-47-1_node_461; 
     to R1-12-47-1_node_466; 
     current_limit 50000;// 15; 
     status CLOSED; 
} 

object fuse:4271 { 
     name R1-12-47-1_fuse_23; 
     phases CN; 
     from R1-12-47-1_node_551; 
     to R1-12-47-1_node_555; 
     current_limit 50000;// 25; 
     status CLOSED; 
} 

object fuse:4272 { 
     name R1-12-47-1_fuse_24; 
     phases ABCN; 
     from R1-12-47-1_node_456; 
     to R1-12-47-1_node_457; 
     current_limit 50000;// 65; 
     status CLOSED; 
} 

object fuse:4273 { 
     name R1-12-47-1_fuse_25; 
     phases AN; 
     from R1-12-47-1_node_532; 
     to R1-12-47-1_node_534; 
     current_limit 50000;// 15; 
     status CLOSED; 
} 

object fuse:4274 { 
     name R1-12-47-1_fuse_26; 
     phases AN; 
     from R1-12-47-1_node_547; 
     to R1-12-47-1_node_558; 
     current_limit 50000;// 15; 
     status CLOSED; 
} 

object fuse:4275 { 
     name R1-12-47-1_fuse_27; 
     phases CN; 
     from R1-12-47-1_node_546; 
     to R1-12-47-1_node_548; 
     current_limit 50000;// 15; 
     status CLOSED; 
} 

object fuse:4276 { 
     name R1-12-47-1_fuse_28; 
     phases BN; 
     from R1-12-47-1_node_449; 
     to R1-12-47-1_node_450; 
     current_limit 50000;// 40; 
     status CLOSED; 
} 

object fuse:4277 { 
     name R1-12-47-1_fuse_29; 
     phases BN; 
     from R1-12-47-1_node_546; 
     to R1-12-47-1_node_556; 
     current_limit 50000;// 15; 
     status CLOSED; 
} 

object fuse:4278 { 
     name R1-12-47-1_fuse_30; 
     phases BN; 
     from R1-12-47-1_node_446; 
     to R1-12-47-1_node_447; 
     current_limit 50000;// 15; 
     status CLOSED; 
} 

object fuse:4279 { 
     name R1-12-47-1_fuse_31; 
     phases AN; 
     from R1-12-47-1_node_326; 
     to R1-12-47-1_node_327; 
     current_limit 50000;// 25; 
     status CLOSED; 
} 

object fuse:4280 { 
     name R1-12-47-1_fuse_32; 
     phases BN; 
     from R1-12-47-1_node_539; 
     to R1-12-47-1_node_541; 
     current_limit 50000;// 40; 
     status CLOSED; 
} 

object fuse:4281 { 
     name R1-12-47-1_fuse_33; 
     phases AN; 
     from R1-12-47-1_node_540; 
     to R1-12-47-1_node_545; 
     current_limit 50000;// 25; 
     status CLOSED; 
} 

object fuse:4282 { 
     name R1-12-47-1_fuse_34; 
     phases ABCN; 
     from R1-12-47-1_node_434; 
     to R1-12-47-1_node_435; 
     current_limit 50000;// 65; 
     status CLOSED; 
} 

object fuse:4283 { 
     name R1-12-47-1_fuse_35; 
     phases AN; 
     from R1-12-47-1_node_355; 
     to R1-12-47-1_node_356; 
     current_limit 50000;// 25; 
     status CLOSED; 
} 

object fuse:4284 { 
     name R1-12-47-1_fuse_36; 
     phases CN; 
     from R1-12-47-1_node_359; 
     to R1-12-47-1_node_419; 
     current_limit 50000;// 25; 
     status CLOSED; 
} 

object fuse:4285 { 
     name R1-12-47-1_fuse_37; 
     phases AN; 
     from R1-12-47-1_node_229; 
     to R1-12-47-1_node_232; 
     current_limit 50000;// 10; 
     status CLOSED; 
} 

object fuse:4286 { 
     name R1-12-47-1_fuse_38; 
     phases AN; 
     from R1-12-47-1_node_538; 
     to R1-12-47-1_node_543; 
     current_limit 50000;// 40; 
     status CLOSED; 
} 

object fuse:4287 { 
     name R1-12-47-1_fuse_39; 
     phases AN; 
     from R1-12-47-1_node_543; 
     to R1-12-47-1_node_544; 
     current_limit 50000;// 25; 
     status CLOSED; 
} 

object fuse:4288 { 
     name R1-12-47-1_fuse_40; 
     phases AN; 
     from R1-12-47-1_node_342; 
     to R1-12-47-1_node_354; 
     current_limit 50000;// 15; 
     status CLOSED; 
} 

object fuse:4289 { 
     name R1-12-47-1_fuse_41; 
     phases AN; 
     from R1-12-47-1_node_335; 
     to R1-12-47-1_node_336; 
     current_limit 50000;// 25; 
     status CLOSED; 
} 

object fuse:4290 { 
     name R1-12-47-1_fuse_42; 
     phases CN; 
     from R1-12-47-1_node_536; 
     to R1-12-47-1_node_537; 
     current_limit 50000;// 25; 
     status CLOSED; 
} 

object fuse:4291 { 
     name R1-12-47-1_fuse_43; 
     phases AN; 
     from R1-12-47-1_node_346; 
     to R1-12-47-1_node_410; 
     current_limit 50000;// 65; 
     status CLOSED; 
} 

object fuse:4292 { 
     name R1-12-47-1_fuse_44; 
     phases CN; 
     from R1-12-47-1_node_345; 
     to R1-12-47-1_node_358; 
     current_limit 50000;// 65; 
     status CLOSED; 
} 

object fuse:4293 { 
     name R1-12-47-1_fuse_45; 
     phases CN; 
     from R1-12-47-1_node_441; 
     to R1-12-47-1_node_442; 
     current_limit 50000;// 15; 
     status CLOSED; 
} 

object fuse:4294 { 
     name R1-12-47-1_fuse_46; 
     phases AN; 
     from R1-12-47-1_node_420; 
     to R1-12-47-1_node_421; 
     current_limit 50000;// 25; 
     status CLOSED; 
} 

object fuse:4295 { 
     name R1-12-47-1_fuse_47; 
     phases ABCN; 
     from R1-12-47-1_node_439; 
     to R1-12-47-1_node_440; 
     current_limit 50000;// 65; 
     status CLOSED; 
} 

object fuse:4296 { 
     name R1-12-47-1_fuse_48; 
     phases ABCN; 
     from R1-12-47-1_node_217; 
     to R1-12-47-1_node_334; 
     current_limit 50000;// 1000; 
     status CLOSED; 
} 

object fuse:4297 { 
     name R1-12-47-1_fuse_49; 
     phases BN; 
     from R1-12-47-1_node_433; 
     to R1-12-47-1_node_432; 
     current_limit 50000;// 15; 
     status CLOSED; 
} 

object fuse:4298 { 
     name R1-12-47-1_fuse_50; 
     phases AN; 
     from R1-12-47-1_node_233; 
     to R1-12-47-1_node_237; 
     current_limit 50000;// 15; 
     status CLOSED; 
} 

object fuse:4299 { 
     name R1-12-47-1_fuse_51; 
     phases ABCN; 
     from R1-12-47-1_node_234; 
     to R1-12-47-1_node_240; 
     current_limit 50000;// 10000; 
     status CLOSED; 
} 

object fuse:4300 { 
     name R1-12-47-1_fuse_52; 
     phases CN; 
     from R1-12-47-1_node_420; 
     to R1-12-47-1_node_423; 
     current_limit 50000;// 40; 
     status CLOSED; 
} 

object fuse:4301 { 
     name R1-12-47-1_fuse_53; 
     phases AN; 
     from R1-12-47-1_node_338; 
     to R1-12-47-1_node_347; 
     current_limit 50000;// 40; 
     status CLOSED; 
} 

object fuse:4302 { 
     name R1-12-47-1_fuse_54; 
     phases AN; 
     from R1-12-47-1_node_347; 
     to R1-12-47-1_node_353; 
     current_limit 50000;// 40; 
     status CLOSED; 
} 

object fuse:4303 { 
     name R1-12-47-1_fuse_55; 
     phases CN; 
     from R1-12-47-1_node_331; 
     to R1-12-47-1_node_332; 
     current_limit 50000;// 150; 
     status CLOSED; 
} 

object fuse:4304 { 
     name R1-12-47-1_fuse_56; 
     phases AN; 
     from R1-12-47-1_node_361; 
     to R1-12-47-1_node_365; 
     current_limit 50000;// 40; 
     status CLOSED; 
} 

object fuse:4305 { 
     name R1-12-47-1_fuse_57; 
     phases CN; 
     from R1-12-47-1_node_229; 
     to R1-12-47-1_node_230; 
     current_limit 50000;// 25; 
     status CLOSED; 
} 

object fuse:4306 { 
     name R1-12-47-1_fuse_58; 
     phases AN; 
     from R1-12-47-1_node_348; 
     to R1-12-47-1_node_352; 
     current_limit 50000;// 25; 
     status CLOSED; 
} 

object fuse:4307 { 
     name R1-12-47-1_fuse_59; 
     phases ABCN; 
     from R1-12-47-1_node_361; 
     to R1-12-47-1_node_362; 
     current_limit 50000;// 65; 
     status CLOSED; 
} 

object fuse:4308 { 
     name R1-12-47-1_fuse_60; 
     phases CN; 
     from R1-12-47-1_node_218; 
     to R1-12-47-1_node_219; 
     current_limit 50000;// 100; 
     status CLOSED; 
} 

object fuse:4309 { 
     name R1-12-47-1_fuse_61; 
     phases AN; 
     from R1-12-47-1_node_350; 
     to R1-12-47-1_node_351; 
     current_limit 50000;// 25; 
     status CLOSED; 
} 

object fuse:4310 { 
     name R1-12-47-1_fuse_62; 
     phases BN; 
     from R1-12-47-1_node_211; 
     to R1-12-47-1_node_213; 
     current_limit 50000;// 25; 
     status CLOSED; 
} 

object fuse:4311 { 
     name R1-12-47-1_fuse_63; 
     phases AN; 
     from R1-12-47-1_node_374; 
     to R1-12-47-1_node_381; 
     current_limit 50000;// 15; 
     status CLOSED; 
} 

object fuse:4312 { 
     name R1-12-47-1_fuse_64; 
     phases CN; 
     from R1-12-47-1_node_368; 
     to R1-12-47-1_node_370; 
     current_limit 50000;// 25; 
     status CLOSED; 
} 

object fuse:4313 { 
     name R1-12-47-1_fuse_65; 
     phases AN; 
     from R1-12-47-1_node_371; 
     to R1-12-47-1_node_372; 
     current_limit 50000;// 40; 
     status CLOSED; 
} 

object fuse:4314 { 
     name R1-12-47-1_fuse_66; 
     phases BN; 
     from R1-12-47-1_node_203; 
     to R1-12-47-1_node_208; 
     current_limit 50000;// 40; 
     status CLOSED; 
} 

object fuse:4315 { 
     name R1-12-47-1_fuse_67; 
     phases AN; 
     from R1-12-47-1_node_372; 
     to R1-12-47-1_node_380; 
     current_limit 50000;// 25; 
     status CLOSED; 
} 

object fuse:4316 { 
     name R1-12-47-1_fuse_68; 
     phases AN; 
     from R1-12-47-1_node_383; 
     to R1-12-47-1_node_384; 
     current_limit 50000;// 25; 
     status CLOSED; 
} 

object fuse:4317 { 
     name R1-12-47-1_fuse_69; 
     phases AN; 
     from R1-12-47-1_node_391; 
     to R1-12-47-1_node_394; 
     current_limit 50000;// 25; 
     status CLOSED; 
} 

object fuse:4318 { 
     name R1-12-47-1_fuse_70; 
     phases BN; 
     from R1-12-47-1_node_211; 
     to R1-12-47-1_node_214; 
     current_limit 50000;// 25; 
     status CLOSED; 
} 

object fuse:4319 { 
     name R1-12-47-1_fuse_71; 
     phases BN; 
     from R1-12-47-1_node_393; 
     to R1-12-47-1_node_396; 
     current_limit 50000;// 25; 
     status CLOSED; 
} 

object fuse:4320 { 
     name R1-12-47-1_fuse_72; 
     phases BN; 
     from R1-12-47-1_node_205; 
     to R1-12-47-1_node_206; 
     current_limit 50000;// 40; 
     status CLOSED; 
} 

object fuse:4321 { 
     name R1-12-47-1_fuse_73; 
     phases BN; 
     from R1-12-47-1_node_175; 
     to R1-12-47-1_node_205; 
     current_limit 50000;// 100; 
     status CLOSED; 
} 

object fuse:4322 { 
     name R1-12-47-1_fuse_74; 
     phases AN; 
     from R1-12-47-1_node_140; 
     to R1-12-47-1_node_163; 
     current_limit 50000;// 65; 
     status CLOSED; 
} 

object fuse:4323 { 
     name R1-12-47-1_fuse_75; 
     phases CN; 
     from R1-12-47-1_node_140; 
     to R1-12-47-1_node_167; 
     current_limit 50000;// 1000; 
     status CLOSED; 
} 

object fuse:4324 { 
     name R1-12-47-1_fuse_76; 
     phases CN; 
     from R1-12-47-1_node_168; 
     to R1-12-47-1_node_170; 
     current_limit 50000;// 40; 
     status CLOSED; 
} 

object fuse:4325 { 
     name R1-12-47-1_fuse_77; 
     phases AN; 
     from R1-12-47-1_node_159; 
     to R1-12-47-1_node_160; 
     current_limit 50000;// 15; 
     status CLOSED; 
} 

object fuse:4326 { 
     name R1-12-47-1_fuse_78; 
     phases BN; 
     from R1-12-47-1_node_403; 
     to R1-12-47-1_node_405; 
     current_limit 50000;// 25; 
     status CLOSED; 
} 

object fuse:4327 { 
     name R1-12-47-1_fuse_79; 
     phases CN; 
     from R1-12-47-1_node_173; 
     to R1-12-47-1_node_182; 
     current_limit 50000;// 650; 
     status CLOSED; 
} 

object fuse:4328 { 
     name R1-12-47-1_fuse_80; 
     phases CN; 
     from R1-12-47-1_node_182; 
     to R1-12-47-1_node_185; 
     current_limit 50000;// 25; 
     status CLOSED; 
} 

object fuse:4329 { 
     name R1-12-47-1_fuse_81; 
     phases AN; 
     from R1-12-47-1_node_133; 
     to R1-12-47-1_node_141; 
     current_limit 50000;// 65; 
     status CLOSED; 
} 

object fuse:4330 { 
     name R1-12-47-1_fuse_82; 
     phases AN; 
     from R1-12-47-1_node_404; 
     to R1-12-47-1_node_408; 
     current_limit 50000;// 25; 
     status CLOSED; 
} 

object fuse:4331 { 
     name R1-12-47-1_fuse_83; 
     phases CN; 
     from R1-12-47-1_node_183; 
     to R1-12-47-1_node_186; 
     current_limit 50000;// 25; 
     status CLOSED; 
} 

object fuse:4332 { 
     name R1-12-47-1_fuse_84; 
     phases AN; 
     from R1-12-47-1_node_147; 
     to R1-12-47-1_node_149; 
     current_limit 50000;// 40; 
     status CLOSED; 
} 

object fuse:4333 { 
     name R1-12-47-1_fuse_85; 
     phases BN; 
     from R1-12-47-1_node_134; 
     to R1-12-47-1_node_135; 
     current_limit 50000;// 25; 
     status CLOSED; 
} 

object fuse:4334 { 
     name R1-12-47-1_fuse_86; 
     phases CN; 
     from R1-12-47-1_node_189; 
     to R1-12-47-1_node_190; 
     current_limit 50000;// 15; 
     status CLOSED; 
} 

object fuse:4335 { 
     name R1-12-47-1_fuse_87; 
     phases BN; 
     from R1-12-47-1_node_74; 
     to R1-12-47-1_node_78; 
     current_limit 50000;// 25; 
     status CLOSED; 
} 

object fuse:4336 { 
     name R1-12-47-1_fuse_88; 
     phases CN; 
     from R1-12-47-1_node_191; 
     to R1-12-47-1_node_193; 
     current_limit 50000;// 25; 
     status CLOSED; 
} 

object fuse:4337 { 
     name R1-12-47-1_fuse_89; 
     phases AN; 
     from R1-12-47-1_node_67; 
     to R1-12-47-1_node_72; 
     current_limit 50000;// 15; 
     status CLOSED; 
} 

object fuse:4338 { 
     name R1-12-47-1_fuse_90; 
     phases AN; 
     from R1-12-47-1_node_23; 
     to R1-12-47-1_node_24; 
     current_limit 50000;// 15; 
     status CLOSED; 
} 

object fuse:4339 { 
     name R1-12-47-1_fuse_91; 
     phases BN; 
     from R1-12-47-1_node_44; 
     to R1-12-47-1_node_128; 
     current_limit 50000;// 25; 
     status CLOSED; 
} 

object fuse:4340 { 
     name R1-12-47-1_fuse_92; 
     phases CN; 
     from R1-12-47-1_node_44; 
     to R1-12-47-1_node_45; 
     current_limit 50000;// 25; 
     status CLOSED; 
} 

object fuse:4341 { 
     name R1-12-47-1_fuse_93; 
     phases BN; 
     from R1-12-47-1_node_44; 
     to R1-12-47-1_node_127; 
     current_limit 50000;// 10; 
     status CLOSED; 
} 

object fuse:4342 { 
     name R1-12-47-1_fuse_94; 
     phases AN; 
     from R1-12-47-1_node_64; 
     to R1-12-47-1_node_70; 
     current_limit 50000;// 25; 
     status CLOSED; 
} 

object fuse:4343 { 
     name R1-12-47-1_fuse_95; 
     phases CN; 
     from R1-12-47-1_node_195; 
     to R1-12-47-1_node_197; 
     current_limit 50000;// 40; 
     status CLOSED; 
} 

object fuse:4344 { 
     name R1-12-47-1_fuse_96; 
     phases CN; 
     from R1-12-47-1_node_195; 
     to R1-12-47-1_node_196; 
     current_limit 50000;// 25; 
     status CLOSED; 
} 

object fuse:4345 { 
     name R1-12-47-1_fuse_97; 
     phases AN; 
     from R1-12-47-1_node_63; 
     to R1-12-47-1_node_69; 
     current_limit 50000;// 40; 
     status CLOSED; 
} 

object fuse:4346 { 
     name R1-12-47-1_fuse_98; 
     phases ABCN; 
     from R1-12-47-1_node_61; 
     to R1-12-47-1_node_62; 
     current_limit 50000;// 65; 
     status CLOSED; 
} 

object fuse:4347 { 
     name R1-12-47-1_fuse_99; 
     phases AN; 
     from R1-12-47-1_node_62; 
     to R1-12-47-1_node_68; 
     current_limit 50000;// 25; 
     status CLOSED; 
} 

object fuse:4348 { 
     name R1-12-47-1_fuse_100; 
     phases AN; 
     from R1-12-47-1_node_6; 
     to R1-12-47-1_node_28; 
     current_limit 50000;// 40; 
     status CLOSED; 
} 

object fuse:4349 { 
     name R1-12-47-1_fuse_101; 
     phases AN; 
     from R1-12-47-1_node_21; 
     to R1-12-47-1_node_22; 
     current_limit 50000;// 6; 
     status CLOSED; 
} 

object fuse:4350 { 
     name R1-12-47-1_fuse_102; 
     phases AN; 
     from R1-12-47-1_node_13; 
     to R1-12-47-1_node_34; 
     current_limit 50000;// 25; 
     status CLOSED; 
} 

object fuse:4351 { 
     name R1-12-47-1_fuse_103; 
     phases ABCN; 
     from R1-12-47-1_node_47; 
     to R1-12-47-1_node_48; 
     current_limit 50000;// 100; 
     status CLOSED; 
} 

object fuse:4352 { 
     name R1-12-47-1_fuse_104; 
     phases BN; 
     from R1-12-47-1_node_14; 
     to R1-12-47-1_node_38; 
     current_limit 50000;// 15; 
     status CLOSED; 
} 

object fuse:4353 { 
     name R1-12-47-1_fuse_105; 
     phases AN; 
     from R1-12-47-1_node_11; 
     to R1-12-47-1_node_31; 
     current_limit 50000;// 25; 
     status CLOSED; 
} 

object fuse:4354 { 
     name R1-12-47-1_fuse_106; 
     phases ABCN; 
     from R1-12-47-1_node_61; 
     to R1-12-47-1_node_79; 
     current_limit 50000;// 65; 
     status CLOSED; 
} 

object fuse:4355 { 
     name R1-12-47-1_fuse_107; 
     phases AN; 
     from R1-12-47-1_node_25; 
     to R1-12-47-1_node_26; 
     current_limit 50000;// 25; 
     status CLOSED; 
} 

object fuse:4356 { 
     name R1-12-47-1_fuse_108; 
     phases BN; 
     from R1-12-47-1_node_7; 
     to R1-12-47-1_node_29; 
     current_limit 50000;// 25; 
     status CLOSED; 
} 

object fuse:4357 { 
     name R1-12-47-1_fuse_109; 
     phases CN; 
     from R1-12-47-1_node_52; 
     to R1-12-47-1_node_54; 
     current_limit 50000;// 10; 
     status CLOSED; 
} 

object fuse:4358 { 
     name R1-12-47-1_fuse_110; 
     phases AN; 
     from R1-12-47-1_node_50; 
     to R1-12-47-1_node_53; 
     current_limit 50000;// 25; 
     status CLOSED; 
} 

object fuse:4359 { 
     name R1-12-47-1_fuse_111; 
     phases BN; 
     from R1-12-47-1_node_80; 
     to R1-12-47-1_node_84; 
     current_limit 50000;// 100; 
     status CLOSED; 
} 

object fuse:4360 { 
     name R1-12-47-1_fuse_112; 
     phases AN; 
     from R1-12-47-1_node_117; 
     to R1-12-47-1_node_119; 
     current_limit 50000;// 25; 
     status CLOSED; 
} 

object fuse:4361 { 
     name R1-12-47-1_fuse_113; 
     phases CN; 
     from R1-12-47-1_node_88; 
     to R1-12-47-1_node_91; 
     current_limit 50000;// 25; 
     status CLOSED; 
} 

object fuse:4362 { 
     name R1-12-47-1_fuse_114; 
     phases AN; 
     from R1-12-47-1_node_88; 
     to R1-12-47-1_node_106; 
     current_limit 50000;// 40; 
     status CLOSED; 
} 

object fuse:4363 { 
     name R1-12-47-1_fuse_115; 
     phases AN; 
     from R1-12-47-1_node_121; 
     to R1-12-47-1_node_125; 
     current_limit 50000;// 25; 
     status CLOSED; 
} 

object fuse:4364 { 
     name R1-12-47-1_fuse_116; 
     phases CN; 
     from R1-12-47-1_node_89; 
     to R1-12-47-1_node_93; 
     current_limit 50000;// 65; 
     status CLOSED; 
} 

object fuse:4365 { 
     name R1-12-47-1_fuse_117; 
     phases AN; 
     from R1-12-47-1_node_117; 
     to R1-12-47-1_node_118; 
     current_limit 50000;// 25; 
     status CLOSED; 
} 

object fuse:4366 { 
     name R1-12-47-1_fuse_118; 
     phases AN; 
     from R1-12-47-1_node_107; 
     to R1-12-47-1_node_108; 
     current_limit 50000;// 40; 
     status CLOSED; 
} 

object fuse:4367 { 
     name R1-12-47-1_fuse_119; 
     phases CN; 
     from R1-12-47-1_node_101; 
     to R1-12-47-1_node_102; 
     current_limit 50000;// 25; 
     status CLOSED; 
} 

object fuse:4368 { 
     name R1-12-47-1_fuse_120; 
     phases AN; 
     from R1-12-47-1_node_123; 
     to R1-12-47-1_node_124; 
     current_limit 50000;// 25; 
     status CLOSED; 
} 

object fuse:4369 { 
     name R1-12-47-1_fuse_121; 
     phases CN; 
     from R1-12-47-1_node_90; 
     to R1-12-47-1_node_97; 
     current_limit 50000;// 65; 
     status CLOSED; 
} 

object fuse:4370 { 
     name R1-12-47-1_fuse_122; 
     phases CN; 
     from R1-12-47-1_node_103; 
     to R1-12-47-1_node_105; 
     current_limit 50000;// 40; 
     status CLOSED; 
} 

object line_configuration:16 { 
     conductor_A underground_line_conductor:2; 
     conductor_N underground_line_conductor:2; 
     spacing line_spacing:11; 
} 

object line_configuration:17 { 
     conductor_B underground_line_conductor:2; 
     conductor_N underground_line_conductor:2; 
     spacing line_spacing:12; 
} 

object line_configuration:18 { 
     conductor_A overhead_line_conductor:3; 
     conductor_N overhead_line_conductor:3; 
     spacing line_spacing:11; 
} 

object line_configuration:19 { 
     conductor_A overhead_line_conductor:3; 
     conductor_B overhead_line_conductor:3; 
     conductor_C overhead_line_conductor:3; 
     conductor_N overhead_line_conductor:3; 
     spacing line_spacing:13; 
} 

object line_configuration:20 { 
     conductor_C underground_line_conductor:2; 
     conductor_N underground_line_conductor:2; 
     spacing line_spacing:14; 
} 

object line_configuration:21 { 
     conductor_C overhead_line_conductor:3; 
     conductor_N overhead_line_conductor:3; 
     spacing line_spacing:14; 
} 

object line_configuration:22 { 
     conductor_A overhead_line_conductor:4; 
     conductor_B overhead_line_conductor:4; 
     conductor_C overhead_line_conductor:4; 
     conductor_N overhead_line_conductor:4; 
     spacing line_spacing:13; 
} 

object line_configuration:23 { 
     conductor_A overhead_line_conductor:5; 
     conductor_N overhead_line_conductor:5; 
     spacing line_spacing:11; 
} 

object line_configuration:24 { 
     conductor_C overhead_line_conductor:6; 
     conductor_N overhead_line_conductor:6; 
     spacing line_spacing:14; 
} 

object line_configuration:25 { 
     conductor_A underground_line_conductor:7; 
     conductor_B underground_line_conductor:7; 
     conductor_C underground_line_conductor:7; 
     conductor_N underground_line_conductor:7; 
     spacing line_spacing:13; 
} 

object line_configuration:26 { 
     conductor_A underground_line_conductor:8; 
     conductor_B underground_line_conductor:8; 
     conductor_C underground_line_conductor:8; 
     conductor_N underground_line_conductor:8; 
     spacing line_spacing:13; 
} 

object line_configuration:27 { 
     conductor_A overhead_line_conductor:9; 
     conductor_N overhead_line_conductor:9; 
     spacing line_spacing:11; 
} 

object line_configuration:28 { 
     conductor_B overhead_line_conductor:3; 
     conductor_N overhead_line_conductor:3; 
     spacing line_spacing:12; 
} 

object line_configuration:29 { 
     conductor_A overhead_line_conductor:6; 
     conductor_N overhead_line_conductor:6; 
     spacing line_spacing:11; 
} 

object line_configuration:30 { 
     conductor_C overhead_line_conductor:9; 
     conductor_N overhead_line_conductor:9; 
     spacing line_spacing:14; 
} 

object line_configuration:31 { 
     conductor_A underground_line_conductor:2; 
     conductor_C underground_line_conductor:2; 
     conductor_N underground_line_conductor:2; 
     spacing line_spacing:15; 
} 

object line_configuration:32 { 
     conductor_A overhead_line_conductor:10; 
     conductor_B overhead_line_conductor:10; 
     conductor_C overhead_line_conductor:10; 
     conductor_N overhead_line_conductor:10; 
     spacing line_spacing:13; 
} 

object line_configuration:33 { 
     conductor_B overhead_line_conductor:9; 
     conductor_N overhead_line_conductor:9; 
     spacing line_spacing:12; 
} 

object line_configuration:34 { 
     conductor_B overhead_line_conductor:5; 
     conductor_N overhead_line_conductor:5; 
     spacing line_spacing:12; 
} 

object line_spacing:11 { 
     distance_AN 4.3; 
} 

object line_spacing:12 { 
     distance_BN 4.3; 
} 

object line_spacing:13 { 
     distance_AB 4.8; 
     distance_BC 4.8; 
     distance_AC 4.8; 
     distance_AN 4.3; 
     distance_BN 4.3; 
     distance_CN 4.3; 
} 

object line_spacing:14 { 
     distance_CN 4.3; 
} 

object line_spacing:15 { 
     distance_AC 4.8; 
     distance_AN 4.3; 
     distance_CN 4.3; 
} 

object load:651 { 
     name R1-12-47-1_load_1; 
     parent R1-12-47-1_meter_1; 
     phases CN; 
     voltage_C -3608.44+6250j; 
     constant_power_C 66446.0143+25680.8384j; 
     nominal_voltage 277.128; 
     load_class C; 
} 

object load:652 { 
     name R1-12-47-1_load_2; 
     parent R1-12-47-1_meter_2; 
     phases AN; 
     voltage_A 7216.88+0.0j; 
     constant_power_A 8271.7473+9205.9446j; 
     nominal_voltage 277.128; 
     load_class C; 
} 

object load:653 { 
     name R1-12-47-1_load_3; 
     parent R1-12-47-1_meter_3; 
     phases CN; 
     voltage_C -3608.44+6250j; 
     constant_power_C 36160.4072+13975.7002j; 
     nominal_voltage 277.128; 
     load_class C; 
} 

object load:654 { 
     name R1-12-47-1_load_4; 
     parent R1-12-47-1_meter_4; 
     phases ABCN; 
     voltage_A 7216.88+0.0j; 
     voltage_B -3608.44-6250j; 
     voltage_C -3608.44+6250j; 
     constant_power_A 0+0j; 
     constant_power_B 8339.1026+3255.4855j; 
     constant_power_C 0+0j; 
     nominal_voltage 277.128; 
     load_class C; 
} 

object load:655 { 
     name R1-12-47-1_load_5; 
     parent R1-12-47-1_meter_5; 
     phases ABCN; 
     voltage_A 7216.88+0.0j; 
     voltage_B -3608.44-6250j; 
     voltage_C -3608.44+6250j; 
     constant_power_A 0+0j; 
     constant_power_B 20326.5626+7935.246j; 
     constant_power_C 0+0j; 
     nominal_voltage 277.128; 
     load_class C; 
} 

object load:656 { 
     name R1-12-47-1_load_6; 
     parent R1-12-47-1_meter_6; 
     phases ABCN; 
     voltage_A 7216.88+0.0j; 
     voltage_B -3608.44-6250j; 
     voltage_C -3608.44+6250j; 
     constant_power_A 0+0j; 
     constant_power_B 15784.7299+6162.1691j; 
     constant_power_C 0+0j; 
     nominal_voltage 277.128; 
     load_class C; 
} 

object load:657 { 
     name R1-12-47-1_load_7; 
     parent R1-12-47-1_meter_7; 
     phases ABCN; 
     voltage_A 7216.88+0.0j; 
     voltage_B -3608.44-6250j; 
     voltage_C -3608.44+6250j; 
     constant_power_A 7958.5631+8857.3899j; 
     constant_power_B 32165.11+12556.8728j; 
     constant_power_C 43757.1314+16911.7716j; 
     nominal_voltage 277.128; 
     load_class C; 
} 

object load:658 { 
     name R1-12-47-1_load_8; 
     parent R1-12-47-1_meter_8; 
     phases AN; 
     voltage_A 7216.88+0.0j; 
     constant_power_A 6411.0647+7135.1197j; 
     nominal_voltage 277.128; 
     load_class C; 
} 

object load:659 { 
     name R1-12-47-1_load_9; 
     parent R1-12-47-1_meter_9; 
     phases CN; 
     voltage_C -3608.44+6250j; 
     constant_power_C 50746.1176+19612.9574j; 
     nominal_voltage 277.128; 
     load_class C; 
} 

object load:660 { 
     name R1-12-47-1_load_10; 
     parent R1-12-47-1_meter_10; 
     phases CN; 
     voltage_C -3608.44+6250j; 
     constant_power_C 10534.1242+4071.3524j; 
     nominal_voltage 277.128; 
     load_class C; 
} 

object load:661 { 
     name R1-12-47-1_load_11; 
     parent R1-12-47-1_meter_11; 
     phases ABCN; 
     voltage_A 7216.88+0.0j; 
     voltage_B -3608.44-6250j; 
     voltage_C -3608.44+6250j; 
     constant_power_A 0+0j; 
     constant_power_B 9083.6653+3546.1539j; 
     constant_power_C 0+0j; 
     nominal_voltage 277.128; 
     load_class C; 
} 

object load:662 { 
     name R1-12-47-1_load_12; 
     parent R1-12-47-1_meter_12; 
     phases CN; 
     voltage_C -3608.44+6250j; 
     constant_power_C 27550.7864+10648.1525j; 
     nominal_voltage 277.128; 
     load_class C; 
} 

object load:663 { 
     name R1-12-47-1_load_13; 
     parent R1-12-47-1_meter_13; 
     phases AN; 
     voltage_A 7216.88+0.0j; 
     constant_power_A 3076.5742+3424.0373j; 
     nominal_voltage 277.128; 
     load_class A; 
} 

object load:664 { 
     name R1-12-47-1_load_14; 
     parent R1-12-47-1_meter_14; 
     phases AN; 
     voltage_A 7216.88+0.0j; 
     constant_power_A 1584.3436+1763.2767j; 
     nominal_voltage 277.128; 
     load_class A; 
} 

object load:665 { 
     name R1-12-47-1_load_15; 
     parent R1-12-47-1_meter_15; 
     phases AN; 
     voltage_A 7216.88+0.0j; 
     constant_power_A 1547.4984+1722.2703j; 
     nominal_voltage 277.128; 
     load_class A; 
} 

object load:666 { 
     name R1-12-47-1_load_16; 
     parent R1-12-47-1_meter_16; 
     phases AN; 
     voltage_A 7216.88+0.0j; 
     constant_power_A 6374.2195+7094.1132j; 
     nominal_voltage 277.128; 
     load_class A; 
} 

object load:667 { 
     name R1-12-47-1_load_17; 
     parent R1-12-47-1_meter_17; 
     phases AN; 
     voltage_A 7216.88+0.0j; 
     constant_power_A 4163.5076+4633.7271j; 
     nominal_voltage 277.128; 
     load_class A; 
} 

object load:668 { 
     name R1-12-47-1_load_18; 
     parent R1-12-47-1_meter_18; 
     phases AN; 
     voltage_A 7216.88+0.0j; 
     constant_power_A 6411.0647+7135.1197j; 
     nominal_voltage 277.128; 
     load_class A; 
} 

object load:669 { 
     name R1-12-47-1_load_19; 
     parent R1-12-47-1_meter_19; 
     phases ABCN; 
     voltage_A 7216.88+0.0j; 
     voltage_B -3608.44-6250j; 
     voltage_C -3608.44+6250j; 
     constant_power_A 0+0j; 
     constant_power_B 14370.0607+5609.8992j; 
     constant_power_C 0+0j; 
     nominal_voltage 277.128; 
     load_class A; 
} 

object load:670 { 
     name R1-12-47-1_load_20; 
     parent R1-12-47-1_meter_20; 
     phases ABCN; 
     voltage_A 7216.88+0.0j; 
     voltage_B -3608.44-6250j; 
     voltage_C -3608.44+6250j; 
     constant_power_A 0+0j; 
     constant_power_B 10721.7033+4185.6243j; 
     constant_power_C 0+0j; 
     nominal_voltage 277.128;
     load_class A; 
} 

object meter:2465 { 
     name R1-12-47-1_meter_1; 
     phases CN; 
     nominal_voltage 277.128; 
} 

object meter:2466 { 
     name R1-12-47-1_meter_2; 
     phases AN; 
     nominal_voltage 277.128; 
} 

object meter:2467 { 
     name R1-12-47-1_meter_3; 
     phases CN; 
     nominal_voltage 277.128; 
} 

object meter:2468 { 
     name R1-12-47-1_meter_4; 
     phases ABCN; 
     nominal_voltage 277.128; 
} 

object meter:2469 { 
     name R1-12-47-1_meter_5; 
     phases ABCN;  
     nominal_voltage 277.128; 
} 

object meter:2470 { 
     name R1-12-47-1_meter_6; 
     phases ABCN;  
     nominal_voltage 277.128; 
} 

object meter:2471 { 
     name R1-12-47-1_meter_7; 
     phases ABCN; 
     nominal_voltage 277.128; 
} 

object meter:2472 { 
     name R1-12-47-1_meter_8; 
     phases AN; 
     nominal_voltage 277.128; 
} 

object meter:2473 { 
     name R1-12-47-1_meter_9; 
     phases CN;  
     nominal_voltage 277.128; 
} 

object meter:2474 { 
     name R1-12-47-1_meter_10; 
     phases CN; 
     nominal_voltage 277.128; 
} 

object meter:2475 { 
     name R1-12-47-1_meter_11; 
     phases ABCN;  
     nominal_voltage 277.128; 
} 

object meter:2476 { 
     name R1-12-47-1_meter_12; 
     phases CN; 
     nominal_voltage 277.128; 
} 

object meter:2477 { 
     name R1-12-47-1_meter_13; 
     phases AN; 
     nominal_voltage 277.128; 
} 

object meter:2478 { 
     name R1-12-47-1_meter_14; 
     phases AN; 
     nominal_voltage 277.128; 
} 

object meter:2479 { 
     name R1-12-47-1_meter_15; 
     phases AN;  
     nominal_voltage 277.128; 
} 

object meter:2480 { 
     name R1-12-47-1_meter_16; 
     phases AN; 
     nominal_voltage 277.128; 
} 

object meter:2481 { 
     name R1-12-47-1_meter_17; 
     phases AN; 
     nominal_voltage 277.128; 
} 

object meter:2482 { 
     name R1-12-47-1_meter_18; 
     phases AN;  
     nominal_voltage 277.128; 
} 

object meter:2483 { 
     name R1-12-47-1_meter_19; 
     phases ABCN;  
     nominal_voltage 277.128; 
} 

object meter:2484 { 
     name R1-12-47-1_meter_20; 
     phases ABCN;  
     nominal_voltage 277.128; 
} 

// Meter at feeder 
object meter:4382 { 
     name R1-12-47-1_meter_21; 
     phases ABCN; 
     nominal_voltage 277.128; 
} 

object node:35 { 
     name R1-12-47-1_node_1; 
     phases ABCN; 
     voltage_A 7216.88+0.0j; 
     voltage_B -3608.44-6250j; 
     voltage_C -3608.44+6250j; 
     nominal_voltage 7216.88; 
} 

object node:36 { 
     name R1-12-47-1_node_2; 
     phases ABCN; 
     voltage_A 7216.88+0.0j; 
     voltage_B -3608.44-6250j; 
     voltage_C -3608.44+6250j; 
     nominal_voltage 7216.88; 
} 

object node:37 { 
     name R1-12-47-1_node_3; 
     phases ABCN; 
     voltage_A 7216.88+0.0j; 
     voltage_B -3608.44-6250j; 
     voltage_C -3608.44+6250j; 
     nominal_voltage 7216.88; 
} 

object node:38 { 
     name R1-12-47-1_node_4; 
     phases ABCN; 
     voltage_A 7216.88+0.0j; 
     voltage_B -3608.44-6250j; 
     voltage_C -3608.44+6250j; 
     nominal_voltage 7216.88; 
} 

object node:39 { 
     name R1-12-47-1_node_5; 
     phases ABCN; 
     voltage_A 7216.88+0.0j; 
     voltage_B -3608.44-6250j; 
     voltage_C -3608.44+6250j; 
     nominal_voltage 7216.88; 
} 

object node:40 { 
     name R1-12-47-1_node_6; 
     phases ABCN; 
     voltage_A 7216.88+0.0j; 
     voltage_B -3608.44-6250j; 
     voltage_C -3608.44+6250j; 
     nominal_voltage 7216.88; 
} 

object node:41 { 
     name R1-12-47-1_node_7; 
     phases ABCN; 
     voltage_A 7216.88+0.0j; 
     voltage_B -3608.44-6250j; 
     voltage_C -3608.44+6250j; 
     nominal_voltage 7216.88; 
} 

object node:42 { 
     name R1-12-47-1_node_8; 
     phases ABCN; 
     voltage_A 7216.88+0.0j; 
     voltage_B -3608.44-6250j; 
     voltage_C -3608.44+6250j; 
     nominal_voltage 7216.88; 
} 

object node:43 { 
     name R1-12-47-1_node_9; 
     phases ABCN; 
     voltage_A 7216.88+0.0j; 
     voltage_B -3608.44-6250j; 
     voltage_C -3608.44+6250j; 
     nominal_voltage 7216.88; 
} 

object node:44 { 
     name R1-12-47-1_node_10; 
     phases ABCN; 
     voltage_A 7216.88+0.0j; 
     voltage_B -3608.44-6250j; 
     voltage_C -3608.44+6250j; 
     nominal_voltage 7216.88; 
} 

object node:45 { 
     name R1-12-47-1_node_11; 
     phases ABCN; 
     voltage_A 7216.88+0.0j; 
     voltage_B -3608.44-6250j; 
     voltage_C -3608.44+6250j; 
     nominal_voltage 7216.88; 
} 

object node:46 { 
     name R1-12-47-1_node_12; 
     phases ABCN; 
     voltage_A 7216.88+0.0j; 
     voltage_B -3608.44-6250j; 
     voltage_C -3608.44+6250j; 
     nominal_voltage 7216.88; 
} 

object node:47 { 
     name R1-12-47-1_node_13; 
     phases ABCN; 
     voltage_A 7216.88+0.0j; 
     voltage_B -3608.44-6250j; 
     voltage_C -3608.44+6250j; 
     nominal_voltage 7216.88; 
} 

object node:48 { 
     name R1-12-47-1_node_14; 
     phases ABCN; 
     voltage_A 7216.88+0.0j; 
     voltage_B -3608.44-6250j; 
     voltage_C -3608.44+6250j; 
     nominal_voltage 7216.88; 
} 

object node:49 { 
     name R1-12-47-1_node_15; 
     phases ABCN; 
     voltage_A 7216.88+0.0j; 
     voltage_B -3608.44-6250j; 
     voltage_C -3608.44+6250j; 
     nominal_voltage 7216.88; 
} 

object node:50 { 
     name R1-12-47-1_node_16; 
     phases ABCN; 
     voltage_A 7216.88+0.0j; 
     voltage_B -3608.44-6250j; 
     voltage_C -3608.44+6250j; 
     nominal_voltage 7216.88; 
} 

object node:51 { 
     name R1-12-47-1_node_17; 
     phases ABCN; 
     voltage_A 7216.88+0.0j; 
     voltage_B -3608.44-6250j; 
     voltage_C -3608.44+6250j; 
     nominal_voltage 7216.88; 
} 

object node:52 { 
     name R1-12-47-1_node_18; 
     phases ABCN; 
     voltage_A 7216.88+0.0j; 
     voltage_B -3608.44-6250j; 
     voltage_C -3608.44+6250j; 
     nominal_voltage 7216.88; 
} 

object node:53 { 
     name R1-12-47-1_node_19; 
     phases ABCN; 
     voltage_A 7216.88+0.0j; 
     voltage_B -3608.44-6250j; 
     voltage_C -3608.44+6250j; 
     nominal_voltage 7216.88; 
} 

object node:54 { 
     name R1-12-47-1_node_20; 
     phases ABCN; 
     voltage_A 7216.88+0.0j; 
     voltage_B -3608.44-6250j; 
     voltage_C -3608.44+6250j; 
     nominal_voltage 7216.88; 
} 

object node:55 { 
     name R1-12-47-1_node_21; 
     phases ABCN; 
     voltage_A 7216.88+0.0j; 
     voltage_B -3608.44-6250j; 
     voltage_C -3608.44+6250j; 
     nominal_voltage 7216.88; 
} 

object node:56 { 
     name R1-12-47-1_node_22; 
     phases AN; 
     voltage_A 7216.88+0.0j; 
     nominal_voltage 7216.88; 
} 

object node:57 { 
     name R1-12-47-1_node_23; 
     phases AN; 
     voltage_A 7216.88+0.0j; 
     nominal_voltage 7216.88; 
} 

object node:58 { 
     name R1-12-47-1_node_24; 
     phases AN; 
     voltage_A 7216.88+0.0j; 
     nominal_voltage 7216.88; 
} 

object node:59 { 
     name R1-12-47-1_node_25; 
     phases ABCN; 
     voltage_A 7216.88+0.0j; 
     voltage_B -3608.44-6250j; 
     voltage_C -3608.44+6250j; 
     nominal_voltage 7216.88; 
} 

object node:60 { 
     name R1-12-47-1_node_26; 
     phases AN; 
     voltage_A 7216.88+0.0j; 
     nominal_voltage 7216.88; 
} 

object node:61 { 
     name R1-12-47-1_node_27; 
     phases AN; 
     voltage_A 7216.88+0.0j; 
     nominal_voltage 7216.88; 
} 

object node:62 { 
     name R1-12-47-1_node_28; 
     phases AN; 
     voltage_A 7216.88+0.0j; 
     nominal_voltage 7216.88; 
} 

object node:63 { 
     name R1-12-47-1_node_29; 
     phases BN; 
     voltage_B -3608.44-6250j; 
     nominal_voltage 7216.88; 
} 

object node:64 { 
     name R1-12-47-1_node_30; 
     phases BN; 
     voltage_B -3608.44-6250j; 
     nominal_voltage 7216.88; 
} 

object node:65 { 
     name R1-12-47-1_node_31; 
     phases AN; 
     voltage_A 7216.88+0.0j; 
     nominal_voltage 7216.88; 
} 

object node:66 { 
     name R1-12-47-1_node_32; 
     phases AN; 
     voltage_A 7216.88+0.0j; 
     nominal_voltage 7216.88; 
} 

object node:67 { 
     name R1-12-47-1_node_33; 
     phases AN; 
     voltage_A 7216.88+0.0j; 
     nominal_voltage 7216.88; 
} 

object node:68 { 
     name R1-12-47-1_node_34; 
     phases AN; 
     voltage_A 7216.88+0.0j; 
     nominal_voltage 7216.88; 
} 

object node:69 { 
     name R1-12-47-1_node_35; 
     phases AN; 
     voltage_A 7216.88+0.0j; 
     nominal_voltage 7216.88; 
} 

object node:70 { 
     name R1-12-47-1_node_36; 
     phases AN; 
     voltage_A 7216.88+0.0j; 
     nominal_voltage 7216.88; 
} 

object node:71 { 
     name R1-12-47-1_node_37; 
     phases AN; 
     voltage_A 7216.88+0.0j; 
     nominal_voltage 7216.88; 
} 

object node:72 { 
     name R1-12-47-1_node_38; 
     phases BN; 
     voltage_B -3608.44-6250j; 
     nominal_voltage 7216.88; 
} 

object node:73 { 
     name R1-12-47-1_node_39; 
     phases BN; 
     voltage_B -3608.44-6250j; 
     nominal_voltage 7216.88; 
} 

object node:74 { 
     name R1-12-47-1_node_40; 
     phases BN; 
     voltage_B -3608.44-6250j; 
     nominal_voltage 7216.88; 
} 

object node:75 { 
     name R1-12-47-1_node_41; 
     phases BN; 
     voltage_B -3608.44-6250j; 
     nominal_voltage 7216.88; 
} 

object node:76 { 
     name R1-12-47-1_node_42; 
     phases BN; 
     voltage_B -3608.44-6250j; 
     nominal_voltage 7216.88; 
} 

object node:77 { 
     name R1-12-47-1_node_43; 
     phases ABCN; 
     voltage_A 7216.88+0.0j; 
     voltage_B -3608.44-6250j; 
     voltage_C -3608.44+6250j; 
     nominal_voltage 7216.88; 
} 

object node:78 { 
     name R1-12-47-1_node_44; 
     phases ABCN; 
     voltage_A 7216.88+0.0j; 
     voltage_B -3608.44-6250j; 
     voltage_C -3608.44+6250j; 
     nominal_voltage 7216.88; 
} 

object node:79 { 
     name R1-12-47-1_node_45; 
     phases CN; 
     voltage_C -3608.44+6250j; 
     nominal_voltage 7216.88; 
} 

object node:80 { 
     name R1-12-47-1_node_46; 
     phases CN; 
     voltage_C -3608.44+6250j; 
     nominal_voltage 7216.88; 
} 

object node:81 { 
     name R1-12-47-1_node_47; 
     phases ABCN; 
     voltage_A 7216.88+0.0j; 
     voltage_B -3608.44-6250j; 
     voltage_C -3608.44+6250j; 
     nominal_voltage 7216.88; 
} 

object node:82 { 
     name R1-12-47-1_node_48; 
     phases ABCN; 
     voltage_A 7216.88+0.0j; 
     voltage_B -3608.44-6250j; 
     voltage_C -3608.44+6250j; 
     nominal_voltage 7216.88; 
} 

object node:83 { 
     name R1-12-47-1_node_49; 
     phases ABCN; 
     voltage_A 7216.88+0.0j; 
     voltage_B -3608.44-6250j; 
     voltage_C -3608.44+6250j; 
     nominal_voltage 7216.88; 
} 

object node:84 { 
     name R1-12-47-1_node_50; 
     phases ABCN; 
     voltage_A 7216.88+0.0j; 
     voltage_B -3608.44-6250j; 
     voltage_C -3608.44+6250j; 
     nominal_voltage 7216.88; 
} 

object node:85 { 
     name R1-12-47-1_node_51; 
     phases ABCN; 
     voltage_A 7216.88+0.0j; 
     voltage_B -3608.44-6250j; 
     voltage_C -3608.44+6250j; 
     nominal_voltage 7216.88; 
} 

object node:86 { 
     name R1-12-47-1_node_52; 
     phases ABCN; 
     voltage_A 7216.88+0.0j; 
     voltage_B -3608.44-6250j; 
     voltage_C -3608.44+6250j; 
     nominal_voltage 7216.88; 
} 

object node:87 { 
     name R1-12-47-1_node_53; 
     phases AN; 
     voltage_A 7216.88+0.0j; 
     nominal_voltage 7216.88; 
} 

object node:88 { 
     name R1-12-47-1_node_54; 
     phases CN; 
     voltage_C -3608.44+6250j; 
     nominal_voltage 7216.88; 
} 

object node:89 { 
     name R1-12-47-1_node_55; 
     phases ABCN; 
     voltage_A 7216.88+0.0j; 
     voltage_B -3608.44-6250j; 
     voltage_C -3608.44+6250j; 
     nominal_voltage 7216.88; 
} 

object node:90 { 
     name R1-12-47-1_node_56; 
     phases ABCN; 
     voltage_A 7216.88+0.0j; 
     voltage_B -3608.44-6250j; 
     voltage_C -3608.44+6250j; 
     nominal_voltage 7216.88; 
} 

object node:91 { 
     name R1-12-47-1_node_57; 
     phases ABCN; 
     voltage_A 7216.88+0.0j; 
     voltage_B -3608.44-6250j; 
     voltage_C -3608.44+6250j; 
     nominal_voltage 7216.88; 
} 

object node:92 { 
     name R1-12-47-1_node_58; 
     phases BN; 
     voltage_B -3608.44-6250j; 
     nominal_voltage 7216.88; 
} 

object node:93 { 
     name R1-12-47-1_node_59; 
     phases BN; 
     voltage_B -3608.44-6250j; 
     nominal_voltage 7216.88; 
} 

object node:94 { 
     name R1-12-47-1_node_60; 
     phases ABCN; 
     voltage_A 7216.88+0.0j; 
     voltage_B -3608.44-6250j; 
     voltage_C -3608.44+6250j; 
     nominal_voltage 7216.88; 
} 

object node:95 { 
     name R1-12-47-1_node_61; 
     phases ABCN; 
     voltage_A 7216.88+0.0j; 
     voltage_B -3608.44-6250j; 
     voltage_C -3608.44+6250j; 
     nominal_voltage 7216.88; 
} 

object node:96 { 
     name R1-12-47-1_node_62; 
     phases ABCN; 
     voltage_A 7216.88+0.0j; 
     voltage_B -3608.44-6250j; 
     voltage_C -3608.44+6250j; 
     nominal_voltage 7216.88; 
} 

object node:97 { 
     name R1-12-47-1_node_63; 
     phases ABCN; 
     voltage_A 7216.88+0.0j; 
     voltage_B -3608.44-6250j; 
     voltage_C -3608.44+6250j; 
     nominal_voltage 7216.88; 
} 

object node:98 { 
     name R1-12-47-1_node_64; 
     phases ABCN; 
     voltage_A 7216.88+0.0j; 
     voltage_B -3608.44-6250j; 
     voltage_C -3608.44+6250j; 
     nominal_voltage 7216.88; 
} 

object node:99 { 
     name R1-12-47-1_node_65; 
     phases ABCN; 
     voltage_A 7216.88+0.0j; 
     voltage_B -3608.44-6250j; 
     voltage_C -3608.44+6250j; 
     nominal_voltage 7216.88; 
} 

object node:100 { 
     name R1-12-47-1_node_66; 
     phases ABCN; 
     voltage_A 7216.88+0.0j; 
     voltage_B -3608.44-6250j; 
     voltage_C -3608.44+6250j; 
     nominal_voltage 7216.88; 
} 

object node:101 { 
     name R1-12-47-1_node_67; 
     phases ABCN; 
     voltage_A 7216.88+0.0j; 
     voltage_B -3608.44-6250j; 
     voltage_C -3608.44+6250j; 
     nominal_voltage 7216.88; 
} 

object node:102 { 
     name R1-12-47-1_node_68; 
     phases AN; 
     voltage_A 7216.88+0.0j; 
     nominal_voltage 7216.88; 
} 

object node:103 { 
     name R1-12-47-1_node_69; 
     phases AN; 
     voltage_A 7216.88+0.0j; 
     nominal_voltage 7216.88; 
} 

object node:104 { 
     name R1-12-47-1_node_70; 
     phases AN; 
     voltage_A 7216.88+0.0j; 
     nominal_voltage 7216.88; 
} 

object node:105 { 
     name R1-12-47-1_node_71; 
     phases AN; 
     voltage_A 7216.88+0.0j; 
     nominal_voltage 7216.88; 
} 

object node:106 { 
     name R1-12-47-1_node_72; 
     phases AN; 
     voltage_A 7216.88+0.0j; 
     nominal_voltage 7216.88; 
} 

object node:107 { 
     name R1-12-47-1_node_73; 
     phases AN; 
     voltage_A 7216.88+0.0j; 
     nominal_voltage 7216.88; 
} 

object node:108 { 
     name R1-12-47-1_node_74; 
     phases ABCN; 
     voltage_A 7216.88+0.0j; 
     voltage_B -3608.44-6250j; 
     voltage_C -3608.44+6250j; 
     nominal_voltage 7216.88; 
} 

object node:109 { 
     name R1-12-47-1_node_75; 
     phases ABCN; 
     voltage_A 7216.88+0.0j; 
     voltage_B -3608.44-6250j; 
     voltage_C -3608.44+6250j; 
     nominal_voltage 7216.88; 
} 

object node:110 { 
     name R1-12-47-1_node_76; 
     phases ABCN; 
     voltage_A 7216.88+0.0j; 
     voltage_B -3608.44-6250j; 
     voltage_C -3608.44+6250j; 
     nominal_voltage 7216.88; 
} 

object node:111 { 
     name R1-12-47-1_node_77; 
     phases ABCN; 
     voltage_A 7216.88+0.0j; 
     voltage_B -3608.44-6250j; 
     voltage_C -3608.44+6250j; 
     nominal_voltage 7216.88; 
} 

object node:112 { 
     name R1-12-47-1_node_78; 
     phases BN; 
     voltage_B -3608.44-6250j; 
     nominal_voltage 7216.88; 
} 

object node:113 { 
     name R1-12-47-1_node_79; 
     phases ABCN; 
     voltage_A 7216.88+0.0j; 
     voltage_B -3608.44-6250j; 
     voltage_C -3608.44+6250j; 
     nominal_voltage 7216.88; 
} 

object node:114 { 
     name R1-12-47-1_node_80; 
     phases ABCN; 
     voltage_A 7216.88+0.0j; 
     voltage_B -3608.44-6250j; 
     voltage_C -3608.44+6250j; 
     nominal_voltage 7216.88; 
} 

object node:115 { 
     name R1-12-47-1_node_81; 
     phases ABCN; 
     voltage_A 7216.88+0.0j; 
     voltage_B -3608.44-6250j; 
     voltage_C -3608.44+6250j; 
     nominal_voltage 7216.88; 
} 

object node:116 { 
     name R1-12-47-1_node_82; 
     phases ABCN; 
     voltage_A 7216.88+0.0j; 
     voltage_B -3608.44-6250j; 
     voltage_C -3608.44+6250j; 
     nominal_voltage 7216.88; 
} 

object node:117 { 
     name R1-12-47-1_node_83; 
     phases ABCN; 
     voltage_A 7216.88+0.0j; 
     voltage_B -3608.44-6250j; 
     voltage_C -3608.44+6250j; 
     nominal_voltage 7216.88; 
} 

object node:118 { 
     name R1-12-47-1_node_84; 
     phases BN; 
     voltage_B -3608.44-6250j; 
     nominal_voltage 7216.88; 
} 

object node:119 { 
     name R1-12-47-1_node_85; 
     phases CN; 
     voltage_C -3608.44+6250j; 
     nominal_voltage 7216.88; 
} 

object node:120 { 
     name R1-12-47-1_node_86; 
     phases BN; 
     voltage_B -3608.44-6250j; 
     nominal_voltage 7216.88; 
} 

object node:121 { 
     name R1-12-47-1_node_87; 
     phases BN; 
     voltage_B -3608.44-6250j; 
     nominal_voltage 7216.88; 
} 

object node:122 { 
     name R1-12-47-1_node_88; 
     phases ABCN; 
     voltage_A 7216.88+0.0j; 
     voltage_B -3608.44-6250j; 
     voltage_C -3608.44+6250j; 
     nominal_voltage 7216.88; 
} 

object node:123 { 
     name R1-12-47-1_node_89; 
     phases ABCN; 
     voltage_A 7216.88+0.0j; 
     voltage_B -3608.44-6250j; 
     voltage_C -3608.44+6250j; 
     nominal_voltage 7216.88; 
} 

object node:124 { 
     name R1-12-47-1_node_90; 
     phases ABCN; 
     voltage_A 7216.88+0.0j; 
     voltage_B -3608.44-6250j; 
     voltage_C -3608.44+6250j; 
     nominal_voltage 7216.88; 
} 

object node:125 { 
     name R1-12-47-1_node_91; 
     phases CN; 
     voltage_C -3608.44+6250j; 
     nominal_voltage 7216.88; 
} 

object node:126 { 
     name R1-12-47-1_node_92; 
     phases CN; 
     voltage_C -3608.44+6250j; 
     nominal_voltage 7216.88; 
} 

object node:127 { 
     name R1-12-47-1_node_93; 
     phases CN; 
     voltage_C -3608.44+6250j; 
     nominal_voltage 7216.88; 
} 

object node:128 { 
     name R1-12-47-1_node_94; 
     phases CN; 
     voltage_C -3608.44+6250j; 
     nominal_voltage 7216.88; 
} 

object node:129 { 
     name R1-12-47-1_node_95; 
     phases CN; 
     voltage_C -3608.44+6250j; 
     nominal_voltage 7216.88; 
} 

object node:130 { 
     name R1-12-47-1_node_96; 
     phases CN; 
     voltage_C -3608.44+6250j; 
     nominal_voltage 7216.88; 
} 

object node:131 { 
     name R1-12-47-1_node_97; 
     phases CN; 
     voltage_C -3608.44+6250j; 
     nominal_voltage 7216.88; 
} 

object node:132 { 
     name R1-12-47-1_node_98; 
     phases CN; 
     voltage_C -3608.44+6250j; 
     nominal_voltage 7216.88; 
} 

object node:133 { 
     name R1-12-47-1_node_99; 
     phases CN; 
     voltage_C -3608.44+6250j; 
     nominal_voltage 7216.88; 
} 

object node:134 { 
     name R1-12-47-1_node_100; 
     phases CN; 
     voltage_C -3608.44+6250j; 
     nominal_voltage 7216.88; 
} 

object node:135 { 
     name R1-12-47-1_node_101; 
     phases CN; 
     voltage_C -3608.44+6250j; 
     nominal_voltage 7216.88; 
} 

object node:136 { 
     name R1-12-47-1_node_102; 
     phases CN; 
     voltage_C -3608.44+6250j; 
     nominal_voltage 7216.88; 
} 

object node:137 { 
     name R1-12-47-1_node_103; 
     phases CN; 
     voltage_C -3608.44+6250j; 
     nominal_voltage 7216.88; 
} 

object node:138 { 
     name R1-12-47-1_node_104; 
     phases CN; 
     voltage_C -3608.44+6250j; 
     nominal_voltage 7216.88; 
} 

object node:139 { 
     name R1-12-47-1_node_105; 
     phases CN; 
     voltage_C -3608.44+6250j; 
     nominal_voltage 7216.88; 
} 

object node:140 { 
     name R1-12-47-1_node_106; 
     phases AN; 
     voltage_A 7216.88+0.0j; 
     nominal_voltage 7216.88; 
} 

object node:141 { 
     name R1-12-47-1_node_107; 
     phases AN; 
     voltage_A 7216.88+0.0j; 
     nominal_voltage 7216.88; 
} 

object node:142 { 
     name R1-12-47-1_node_108; 
     phases AN; 
     voltage_A 7216.88+0.0j; 
     nominal_voltage 7216.88; 
} 

object node:143 { 
     name R1-12-47-1_node_109; 
     phases AN; 
     voltage_A 7216.88+0.0j; 
     nominal_voltage 7216.88; 
} 

object node:144 { 
     name R1-12-47-1_node_110; 
     phases AN; 
     voltage_A 7216.88+0.0j; 
     nominal_voltage 7216.88; 
} 

object node:145 { 
     name R1-12-47-1_node_111; 
     phases AN; 
     voltage_A 7216.88+0.0j; 
     nominal_voltage 7216.88; 
} 

object node:146 { 
     name R1-12-47-1_node_112; 
     phases AN; 
     voltage_A 7216.88+0.0j; 
     nominal_voltage 7216.88; 
} 

object node:147 { 
     name R1-12-47-1_node_113; 
     phases AN; 
     voltage_A 7216.88+0.0j; 
     nominal_voltage 7216.88; 
} 

object node:148 { 
     name R1-12-47-1_node_114; 
     phases AN; 
     voltage_A 7216.88+0.0j; 
     nominal_voltage 7216.88; 
} 

object node:149 { 
     name R1-12-47-1_node_115; 
     phases AN; 
     voltage_A 7216.88+0.0j; 
     nominal_voltage 7216.88; 
} 

object node:150 { 
     name R1-12-47-1_node_116; 
     phases AN; 
     voltage_A 7216.88+0.0j; 
     nominal_voltage 7216.88; 
} 

object node:151 { 
     name R1-12-47-1_node_117; 
     phases AN; 
     voltage_A 7216.88+0.0j; 
     nominal_voltage 7216.88; 
} 

object node:152 { 
     name R1-12-47-1_node_118; 
     phases AN; 
     voltage_A 7216.88+0.0j; 
     nominal_voltage 7216.88; 
} 

object node:153 { 
     name R1-12-47-1_node_119; 
     phases AN; 
     voltage_A 7216.88+0.0j; 
     nominal_voltage 7216.88; 
} 

object node:154 { 
     name R1-12-47-1_node_120; 
     phases AN; 
     voltage_A 7216.88+0.0j; 
     nominal_voltage 7216.88; 
} 

object node:155 { 
     name R1-12-47-1_node_121; 
     phases AN; 
     voltage_A 7216.88+0.0j; 
     nominal_voltage 7216.88; 
} 

object node:156 { 
     name R1-12-47-1_node_122; 
     phases AN; 
     voltage_A 7216.88+0.0j; 
     nominal_voltage 7216.88; 
} 

object node:157 { 
     name R1-12-47-1_node_123; 
     phases AN; 
     voltage_A 7216.88+0.0j; 
     nominal_voltage 7216.88; 
} 

object node:158 { 
     name R1-12-47-1_node_124; 
     phases AN; 
     voltage_A 7216.88+0.0j; 
     nominal_voltage 7216.88; 
} 

object node:159 { 
     name R1-12-47-1_node_125; 
     phases AN; 
     voltage_A 7216.88+0.0j; 
     nominal_voltage 7216.88; 
} 

object node:160 { 
     name R1-12-47-1_node_126; 
     phases AN; 
     voltage_A 7216.88+0.0j; 
     nominal_voltage 7216.88; 
} 

object node:161 { 
     name R1-12-47-1_node_127; 
     phases BN; 
     voltage_B -3608.44-6250j; 
     nominal_voltage 7216.88; 
} 

object node:162 { 
     name R1-12-47-1_node_128; 
     phases BN; 
     voltage_B -3608.44-6250j; 
     nominal_voltage 7216.88; 
} 

object node:163 { 
     name R1-12-47-1_node_129; 
     phases BN; 
     voltage_B -3608.44-6250j; 
     nominal_voltage 7216.88; 
} 

object node:164 { 
     name R1-12-47-1_node_130; 
     phases ABCN; 
     voltage_A 7216.88+0.0j; 
     voltage_B -3608.44-6250j; 
     voltage_C -3608.44+6250j; 
     nominal_voltage 7216.88; 
} 

object node:165 { 
     name R1-12-47-1_node_131; 
     phases ABCN; 
     voltage_A 7216.88+0.0j; 
     voltage_B -3608.44-6250j; 
     voltage_C -3608.44+6250j; 
     nominal_voltage 7216.88; 
} 

object node:166 { 
     name R1-12-47-1_node_132; 
     phases ABCN; 
     voltage_A 7216.88+0.0j; 
     voltage_B -3608.44-6250j; 
     voltage_C -3608.44+6250j; 
     nominal_voltage 7216.88; 
} 

object node:167 { 
     name R1-12-47-1_node_133; 
     phases ABCN; 
     voltage_A 7216.88+0.0j; 
     voltage_B -3608.44-6250j; 
     voltage_C -3608.44+6250j; 
     nominal_voltage 7216.88; 
} 

object node:168 { 
     name R1-12-47-1_node_134; 
     phases ABCN; 
     voltage_A 7216.88+0.0j; 
     voltage_B -3608.44-6250j; 
     voltage_C -3608.44+6250j; 
     nominal_voltage 7216.88; 
} 

object node:169 { 
     name R1-12-47-1_node_135; 
     phases BN; 
     voltage_B -3608.44-6250j; 
     nominal_voltage 7216.88; 
} 

object node:170 { 
     name R1-12-47-1_node_136; 
     phases BN; 
     voltage_B -3608.44-6250j; 
     nominal_voltage 7216.88; 
} 

object node:171 { 
     name R1-12-47-1_node_137; 
     phases BN; 
     voltage_B -3608.44-6250j; 
     nominal_voltage 7216.88; 
} 

object node:172 { 
     name R1-12-47-1_node_138; 
     phases BN; 
     voltage_B -3608.44-6250j; 
     nominal_voltage 7216.88; 
} 

object node:173 { 
     name R1-12-47-1_node_139; 
     phases ABCN; 
     voltage_A 7216.88+0.0j; 
     voltage_B -3608.44-6250j; 
     voltage_C -3608.44+6250j; 
     nominal_voltage 7216.88; 
} 

object node:174 { 
     name R1-12-47-1_node_140; 
     phases ABCN; 
     voltage_A 7216.88+0.0j; 
     voltage_B -3608.44-6250j; 
     voltage_C -3608.44+6250j; 
     nominal_voltage 7216.88; 
} 

object node:175 { 
     name R1-12-47-1_node_141; 
     phases AN; 
     voltage_A 7216.88+0.0j; 
     nominal_voltage 7216.88; 
} 

object node:176 { 
     name R1-12-47-1_node_142; 
     phases AN; 
     voltage_A 7216.88+0.0j; 
     nominal_voltage 7216.88; 
} 

object node:177 { 
     name R1-12-47-1_node_143; 
     phases AN; 
     voltage_A 7216.88+0.0j; 
     nominal_voltage 7216.88; 
} 

object node:178 { 
     name R1-12-47-1_node_144; 
     phases AN; 
...